          38
i =      0 , time =     0.000
C            20.4825526549      -13.6092609266      -18.6258759034
H            22.5293147535      -13.9289054836      -18.9762079725
H            19.5146804862      -12.0831857025      -19.6933000468
C            19.3054684096      -15.0110252879      -16.8048435695
H            17.3313727366      -14.6107865140      -16.4400542223
H            20.2821596336      -16.3908635448      -15.7256925484
C            14.8908110978      -15.6160982045      -22.7282340603
H            15.8935770286      -16.0392035498      -24.4160127348
H            14.0812324404      -17.2451220573      -21.8272321789
C            14.6885255714      -13.2998024515      -21.9204898250
H            13.6457119915      -12.7111759768      -20.2394276487
H            15.4859095435      -11.6947099196      -22.9669325772
Ne          -42.9097085088      -34.8592736223        3.0949975749
Ne          -15.2323315930       32.7946020826      -14.9918660999
Ne          -13.5276272235      -19.3242029609       49.7975820862
Ne          -13.8599096644      -59.1753412858        0.5662827150
Ne          -27.3939687356       20.4325003855        9.8318876394
Ne            0.2364874251       -9.7862064863        5.5673801359
Ne          -40.7612112535       46.8817934075       -4.0710830316
Ne          -34.2928614149       -3.1418984310       58.5023051654
Ne          -58.0705996123        9.4519278308       -1.2869885098
Ne           48.2370444565      -43.3473257724      -35.8223327983
Ne          -94.6779561748      -34.9744793638       -4.2105198516
Ne          -35.0003068425        3.3706010105      -12.5069852544
Ne           44.5978510826       26.5833058239       26.0181774984
Ne           17.8700705010      -58.2120757411       28.8085376672
Ne           17.2133753456       16.9781653506      -29.9443342870
Ne          -48.0927611546       -4.7938673265       13.0529334177
Ne            0.2106718572       26.3255194016       -6.5067035583
Ne           22.5476531741       16.9165589608        4.4287708447
Ne          -11.9133073858       19.9121143809        2.3042209697
Ne           95.8960848794       14.6976611964       55.4867132480
Ne           39.6859924706      -24.1327985922      -64.7267269860
Ne           90.7231956677       17.0579216759      -30.7285245486
Ne           36.3554412866      -32.0714846354       31.3049806339
Ne          -41.4550291539       40.8275779746      -42.0760154456
Ne           25.4613361811       65.8481516336      -16.3163724768
Ne            0.4454354269        5.7123666347       30.0885714907
          38
i =     10 , time =     0.100
C            20.4837671795      -13.6114897562      -18.6244582886
H            22.5282854893      -13.9304504187      -18.9738736335
H            19.5146052748      -12.0870857728      -19.6914750220
C            19.3060232919      -15.0102600179      -16.8053395834
H            17.3304685540      -14.6110708957      -16.4402357358
H            20.2841378583      -16.3909693736      -15.7225728153
C            14.8913806748      -15.6177843480      -22.7288842018
H            15.8973552049      -16.0362937777      -24.4185189349
H            14.0810904489      -17.2475309124      -21.8275889411
C            14.6880263088      -13.3000689706      -21.9202174137
H            13.6459917450      -12.7152731291      -20.2399416365
H            15.4850088030      -11.6975590014      -22.9695554829
Ne          -42.9109711592      -34.8595841879        3.0958783459
Ne          -15.2322200136       32.7955390357      -14.9921716354
Ne          -13.5281020330      -19.3243852340       49.7983909116
Ne          -13.8595819972      -59.1764299700        0.5662140036
Ne          -27.3939632186       20.4330605910        9.8320394666
Ne            0.2367042960       -9.7865201159        5.5672113632
Ne          -40.7616387713       46.8823435589       -4.0707522392
Ne          -34.2927874853       -3.1423091716       58.5023538734
Ne          -58.0713445327        9.4517018258       -1.2873237246
Ne           48.2378300438      -43.3480989884      -35.8224644792
Ne          -94.6788979420      -34.9748165547       -4.2111097828
Ne          -35.0009157373        3.3710778914      -12.5077061802
Ne           44.5983872904       26.5837999787       26.0192508757
Ne           17.8698346173      -58.2112217113       28.8074778898
Ne           17.2137378566       16.9781383823      -29.9446206261
Ne          -48.0940515161       -4.7944808741       13.0539147406
Ne            0.2108945209       26.3257387262       -6.5072130159
Ne           22.5477814875       16.9171901446        4.4291747196
Ne          -11.9139356923       19.9132226462        2.3039821915
Ne           95.8975450260       14.6982628165       55.4874528888
Ne           39.6865148092      -24.1329920289      -64.7277922478
Ne           90.7245751913       17.0581990447      -30.7290945299
Ne           36.3562466750      -32.0720069681       31.3054584556
Ne          -41.4561562981       40.8280246745      -42.0764331551
Ne           25.4617983719       65.8488165500      -16.3169490087
Ne            0.4445332580        5.7121900339       30.0893406246
